Circuit: * D:\DocumentosD\UTN\4_Cuarto Año\Teoria de los Circuitos II\TS1\PasaTodo.asc

Ignoring empty pin current: Ix(u1:1)
Ignoring empty pin current: Ix(u1:2)

Date: Wed Apr 27 19:13:49 2022
Total elapsed time: 0.036 seconds.

tnom = 27
temp = 27
method = trap
totiter = 0
traniter = 0
tranpoints = 0
accept = 0
rejected = 0
matrix size = 5
fillins = 2
solver = Normal

